hit.", "related_links": null, "title": "combat - How do I make a gunslinger with a decent damage ..."}, {"url": "/url?q=http://passcode.csmonitor.com/hackerkids&sa=U&ved=0ahUKEwjOrIqW-fTPAhXGKiYKHR-GBwIQFgj4ATA7&usg=AFQjCNHoIq4x3VBXADOWU0Lh6uwWl65QVQ", "snippet": "20 hours ago ... They are part of a new generation of tinkerers and boundary pushers ... Turns out\n, CyFi had unearthed a new class of previously undisclosed security .... any kind \nof future spy, Reuben is also sharpening his digital attacks and defenses. ... She \nrolled dice at breakfast and while watching Harry Potter movies.", "related_links": null, "title": "15 under 15: Rising stars in cybersecurity - Passcode"}, {"url": "/url?q=https://www.freebsd.org/ports/master-index.html&sa=U&ved=0ahUKEwjOrIqW-fTPAhXGKiYKHR-GBwIQFgj8ATA8&usg=AFQjCNF8blJAH0OHVW8tTZdj-Rr_NqA6hw", "snippet": "... and browsers XNap-2.5.r3_3 -- Pure Java napster client; also, supports \nOpenNap & giFT (FastTrack) ...... bft-1.1.5_1 -- Code_Saturne Base Functions \nand Types library .... black-box-1.4.8_3 -- Shoot in and watch where the shot \nleaves the box ...... cinepaint-1.0.4_11 -- Editing tool used for painting and \nretouching of movies", "related_links": null, "title": "FreeBSD Ports Collection Index"}, {"url": "/url?q=http://www.pangloss.com/seidel/MPoem/mass_poem.cgi&sa=U&ved=0ahUKEwjOrIqW-fTPAhXGKiYKHR-GBwIQFgj_ATA9&usg=AFQjCNEjqHscTwBCpC24MedvTLaLDt_E1A", "snippet": "I wanna shot the stars down to grant me a wish. ..... only the elekrik magic ethers \nbetwixt ...... people please dont do this it is a waste of your little life and also is no \nfun ... the cajan, his mad tricks and toothy smile well have you coming back in a \nwhile ...... Everyone who types below this line is a gay faggot kthxbai over 9000...", "related_links": null, "title": "Poem of the Masses - Pangloss Wisdom"}, {"url": "/url?q=https://saleoff948.goodexperttricks.stream/battlefield-1-strategy-guide___bf1guide___product-detail.html&sa=U&ved=0ahUKEwjOrIqW-fTPAhXGKiYKHR-GBwIQFgiCAjA-&usg=AFQjCNH0OPy6XdPwHhfvzIokxLrbGER0aw", "snippet": "give guide weapons classes work perfect load class? plane tank ULTIMATE \nsoldier Dear ... nightmare Secret Tricks Battlefield 1 Strategy Guide: putting work \nlevel. ... reviewed certified dice electronic arts; step by step elite class guide; \nmagic way ..... remember types weaknesses: part best routine to pressure \nsituations types...", "related_links": null, "title": "Battlefield 1 Strategy Guide Testimonials, dominate game envy ..."}, {"url": "/url?q=http://www.faterpg.com/dl/sotc-srd.html&sa=U&ved=0ahUKEwjOrIqW-fTPAhXGKiYKHR-GBwIQFgiEAjA_&usg=AFQjCNEKWnppzfM_vjaKz5IYO13IqekWMw", "snippet": "'Spirit of the Century' and the stunt names used with kind permission by the \nauthors. Thanks ..... For many, many more examples see the aspects section \nstarting on page XX. ... An aspect can also allow you to gain more fate points, by \nbringing complications and troubling ...... Dice are used in one of three types of \nsituations:...", "related_links": null, "title": "SotC SRD - Fate"}, {"url": "/url?q=http://www.bowiewonderworld.com/songs/dblyrics.htm&sa=U&ved=0ahUKEwjOrIqW-fTPAhXGKiYKHR-GBwIQFgiIAjBA&usg=AFQjCNGBiDn-xQhgnn709xZAtRgfEBtjiw", "snippet": "You'll be shooting up as usual like tomorrow wasn't there. Beware the savage ...... \nWhy did you part from the mothers who nursed you as babies. It was peaceful...", "related_links": null, "title": "David Bowie Wonderworld: David Bowie